LAMMPS (11 Aug 2017)
####################################################################################
# External variables that have to be passed on call
# Temperature 	= temperature of the system
# trjFile	= name of the .xtc trajectory file
# dataFile	= name of the .data input for Lammps
# nRand		= random number as seed for the velocity creation
# Timestep	= timestep in fs
# Eps		= LJ epsilon of mW C interaction
# Sigma		= LJ epsilon of mW C interaction
# nTimesteps	= number of timesteps to run
# nStride       = stride of thermo and trajectory output
#####################################################################################

units real
dimension 3
newton on
processors * * *
boundary p p p
atom_style atomic
box tilt large
read_data liq.data
  orthogonal box = (-0.005 0.0045 0.008999) to (45.195 45.2045 45.209)
  reading atoms ...
  3020 atoms

###################### MASS ######################

mass 1 18.015
mass 2 16.043

###################### GROUPS ######################

group mW type 1
3000 atoms in group mW
group CH4 type 2
20 atoms in group CH4

###################### INTERACTIONS ######################

pair_style sw
pair_coeff * * mW-CH4.sw mW CH4

###################### INTERACTIONS ######################

neighbor 2.0 bin
timestep 10
min_style cg
run_style verlet

###################### COMPUTES ######################

compute mWtemp mW temp
thermo $(v_psStride*1000/v_Timestep)
thermo 500
thermo_style custom step time etotal c_mWtemp ke pe enthalpy temp press vol density cpu
thermo_modify flush yes

###################### FIX ######################

#fix wallz mW wall/lj93 zlo 0.001 0.5 2 5
#fix_modify wallz energy yes

###################### RUNNING ######################

dump d1 all xtc 500 270-270-1ns/trj.xtc

###################### MINIMIZATION ######################

minimize 1e-13 1e-15 5000 50000
  update every 1 steps, delay 0 steps, check yes
Step Time TotEng c_mWtemp KinEng PotEng Enthalpy Temp Press Volume Density CPU
0            0    1082195.2            0            0    1082195.2    2681988.6            0    1187880.3    92345.414   0.97759729            0
Loop time of 28.0817 on 2 procs for 1218 steps with 3020 atoms

Minimization stats:
  Stopping criterion = linesearch alpha is zero
  Energy initial, next-to-last, final =
  Force two-norm initial, final = 5.79938e+06 0.0789054
  Force max component initial, final = 2.35806e+06 0.0196823
  Final line search alpha, max atom move = 1.90735e-06 3.7541e-08
  Iterations, force evaluations = 1218 2062

###################### VELOCITIES ######################

velocity all create 270 16485 dist gaussian mom yes rot yes

###################### EQUILIBRATION ######################

timestep $(v_Timestep/2)
timestep 5
fix f1 all nvt temp 270 270 $(100*v_Timestep/2) tchain 10
fix f1 all nvt temp 270 270 500 tchain 10
fix_modify f1 temp mWtemp
run $(500*1000/v_Timestep/2)
run 25000
Step Time TotEng c_mWtemp KinEng PotEng Enthalpy Temp Press Volume Density CPU
1218            0   -31371.899     269.6146    2429.7477   -33801.647   -31198.319          270    128.88658    92345.414   0.97759729            0
Averages over the last 26 of 52 rows, steps 14000 to 26218:
TotEng c_mWtemp KinEng PotEng Enthalpy Temp Press Volume Density
-28171.6 271.12 2439.43 -30611 -29475.5 271.076 -968.174 92345.4 0.977597
Loop time of 351.091 on 2 procs for 25000 steps with 3020 atoms

###################### RUN ######################

unfix f1
fix f2 all nvt temp 270 270 $(100*v_Timestep) tchain 10
fix f2 all nvt temp 270 270 1000 tchain 10
fix_modify f2 temp mWtemp

reset_timestep 0
run 0
Step Time TotEng c_mWtemp KinEng PotEng Enthalpy Temp Press Volume Density CPU
0       125000   -28150.969     266.6127    2400.9481   -30551.917   -29172.435    266.79971   -758.45939    92345.414   0.97759729            0
Loop time of 4.5e-06 on 2 procs for 0 steps with 3020 atoms

timestep 10
run $(v_nsRunTime*1000000/v_Timestep)
run 100000
Step Time TotEng c_mWtemp KinEng PotEng Enthalpy Temp Press Volume Density CPU
0       125000   -28150.969     266.6127    2400.9481   -30551.917   -29172.435    266.79971   -758.45939    92345.414   0.97759729            0
Averages over the last 101 of 201 rows, steps 50000 to 100000:
TotEng c_mWtemp KinEng PotEng Enthalpy Temp Press Volume Density
-28146.8 269.851 2428.5 -30575.3 -29462.3 269.862 -976.77 92345.4 0.977597
Loop time of 1236.57 on 2 procs for 100000 steps with 3020 atoms
