LAMMPS (11 Aug 2017)
####################################################################################
# External variables that have to be passed on call
# Temperature 	= temperature of the system
# trjFile	= name of the .xtc trajectory file
# dataFile	= name of the .data input for Lammps
# nRand		= random number as seed for the velocity creation
# Timestep	= timestep in fs
# Eps		= LJ epsilon of mW C interaction
# Sigma		= LJ epsilon of mW C interaction
# nTimesteps	= number of timesteps to run
# nStride       = stride of thermo and trajectory output
#####################################################################################

units real
dimension 3
newton on
processors * * *
boundary p p p
atom_style atomic
box tilt large
read_data liq.data
  orthogonal box = (-0.005 0.0045 0.008999) to (45.195 45.2045 45.209)
  reading atoms ...
  3000 atoms

###################### MASS ######################

mass 1 18.015

###################### GROUPS ######################

group mW type 1
3000 atoms in group mW

###################### INTERACTIONS ######################

pair_style sw  # stilinger-weber potl
pair_coeff * * mW-mW.sw mW

###################### INTERACTIONS ######################

neighbor 2.0 bin
timestep 10
min_style cg
run_style verlet

###################### COMPUTES ######################

compute mWtemp mW temp
thermo $(v_psStride*1000/v_Timestep)
thermo 500
thermo_style custom step time etotal c_mWtemp ke pe enthalpy temp press vol density cpu
thermo_modify flush yes

###################### FIX ######################

#fix wallz mW wall/lj93 zlo 0.001 0.5 2 5
#fix_modify wallz energy yes

###################### RUNNING ######################

dump d1 all xtc 500 NVP-NVT/trj.xtc

###################### MINIMIZATION ######################

minimize 1e-13 1e-15 5000 50000
  update every 1 steps, delay 0 steps, check yes
Step Time TotEng c_mWtemp KinEng PotEng Enthalpy Temp Press Volume Density CPU
0            0    1081442.9            0            0    1081442.9    2680077.2            0    1187019.7    92345.414   0.97182764            0
Loop time of 4.71344 on 2 procs for 593 steps with 3000 atoms

Minimization stats:
  Stopping criterion = linesearch alpha is zero
  Energy initial, next-to-last, final =
  Force two-norm initial, final = 5.79938e+06 0.0752938
  Force max component initial, final = 2.35806e+06 0.0170692
  Final line search alpha, max atom move = 1.90735e-06 3.25569e-08
  Iterations, force evaluations = 593 920

###################### VELOCITIES ######################

velocity mW create 200 8599 dist gaussian mom yes rot yes

###################### EQUILIBRATION ######################

###example of npt run - constant pressure instead of volume. System volume will change with time####
#this will likely be necessary for your simulation. If doing bulk liquid (i.e. periodic b.c in xy&z) then need appropraite density - equilibrate with npt then do production run nvt in this case.
timestep $(v_Timestep/2)
timestep 5
fix f1 mW npt temp 275 275 $(100*v_Timestep/2) tchain 10 iso 1.0 1.0 $(1000*v_Timestep/2) pchain 10
fix f1 mW npt temp 275 275 500 tchain 10 iso 1.0 1.0 $(1000*v_Timestep/2) pchain 10
fix f1 mW npt temp 275 275 500 tchain 10 iso 1.0 1.0 5000 pchain 10
fix_modify f1 temp mWtemp
run $(50*1000/v_Timestep*2)
run 10000
Step Time TotEng c_mWtemp KinEng PotEng Enthalpy Temp Press Volume Density CPU
593            0   -31863.136          200    1787.8899   -33651.026   -32299.054          200   -323.67801    92345.414   0.97182764            0
Averages over the last 11 of 22 rows, steps 6000 to 10593:
TotEng c_mWtemp KinEng PotEng Enthalpy Temp Press Volume Density
-28122.8 274.847 2456.98 -30579.8 -28151.1 274.847 -20.9588 89717.4 1.00031
Loop time of 60.3496 on 2 procs for 10000 steps with 3000 atoms

#unfix f1
#fix f2 mW nve
#fix_modify f2 temp mWtemp
#
#run $(500*1000/v_Timestep/2)

###################### RUN ######################

unfix f1
fix f3 mW nvt temp 200 200 $(100*v_Timestep) tchain 10
fix f3 mW nvt temp 200 200 1000 tchain 10
fix_modify f3 temp mWtemp

reset_timestep 0
run 0
Step Time TotEng c_mWtemp KinEng PotEng Enthalpy Temp Press Volume Density CPU
0        50000   -28126.064    275.89697    2466.3669   -30592.431   -28538.714    275.89697   -314.66973    89919.036   0.99805147            0
Loop time of 4.5e-06 on 2 procs for 0 steps with 3000 atoms

timestep 10
run $(v_nsRunTime*1000000/v_Timestep)
run 10000
Step Time TotEng c_mWtemp KinEng PotEng Enthalpy Temp Press Volume Density CPU
0        50000   -28126.064    275.89697    2466.3669   -30592.431   -28538.714    275.89697   -314.66973    89919.036   0.99805147            0
Averages over the last 11 of 21 rows, steps 5000 to 10000:
TotEng c_mWtemp KinEng PotEng Enthalpy Temp Press Volume Density
-30561.3 200.183 1789.53 -32350.8 -29887.5 200.183 513.792 89919 0.998051
Loop time of 58.4221 on 2 procs for 10000 steps with 3000 atoms
