LAMMPS (11 Aug 2017)
####################################################################################
# External variables that have to be passed on call
# Temperature 	= temperature of the system
# trjFile	= name of the .xtc trajectory file
# dataFile	= name of the .data input for Lammps
# nRand		= random number as seed for the velocity creation
# Timestep	= timestep in fs
# Eps		= LJ epsilon of mW C interaction
# Sigma		= LJ epsilon of mW C interaction
# nTimesteps	= number of timesteps to run
# nStride       = stride of thermo and trajectory output
#####################################################################################

units          real #read on lammps how this defines the units for energy, forces etc.
dimension      3 #simulation simension. 3D
newton         on
processors     * * * #(x y z) sets how splits into box between processors, * does auto
boundary       s s s #(x y z) periodic boundary conditions
atom_style     atomic #sets "style" of atoms being used in simulation. i.e. what attributes the atoms have (bonds, angles, spin..)
box tilt large
read_data      system.data
  orthogonal box = (0 0 0) to (56 56 56)
  reading atoms ...
  3375 atoms

#..but this file doesn't contain masses so need line below
####################################################################################
#mass - tell lammps atom masses. syntax: mass atom-type value
mass           1 18.015
mass           2 12.011

#groups - set the atoms in the simulation to belong to groups
#syntax: group "group name" type n
#set the groups by assigning "atom types" to them
group          mW 	type 1 #makes a group called "mW" (ie H20) from all type 1 atoms, which are
2197 atoms in group mW
#..defined in the file read by read_data
group          OH        type 2 #same but for the surface (type 2 is defined by read_data file)
1178 atoms in group OH

#set up interaction between the groups
pair_style sw #sw = stilinger-weber potential
pair_coeff * * ./mW-OH.sw mW OH  #file mW-OH.sw has potential definition in. Tell lammps to use this between group mW and OH defined above

#another interaction example - here set up Lenard-Jones interation between type 1 and type 2 atoms, then interaction between type 2 and type 2. You would also need a water-water interaction

neighbor       2.0 bin

timestep       10
min_style      cg #minimisation algrothim that will be used in any minimize command given to lammps
run_style      verlet #algorithm for the equations of motion "velocity-verlet" algorithm used

#make sure compute the correct temp. exclude the stationary surface
#syntax: compute name group attribute
compute        mWtemp mW temp #so mWtemp is the name we've given to temperature of the mW group (i.e. water) -> call in thermo_style with c_mWtemp

thermo         $(v_psStride*1000/v_Timestep) #how often outputs thermodynamic info. We don't want every timestep - too much information. Set up here so get information every v_psStride picoseconds
thermo         1000
#thermo style: thermodynamic input - shown as table of values specified
thermo_style   custom step time etotal c_mWtemp ke pe enthalpy temp press vol density cpu
thermo_modify  flush yes

####################################################################################
#fix fZwalls all wall/reflect zhi EDGE #reflecting wall at top of sim - in case of evapouration
fix fMin OH setforce 0 0 0 #ensure forces between frozen surface are zero

#set wall for bottom of simulation - don't worry about
#fix wallz mW wall/lj93 zlo 0.001 0.5 2 5 xlo 0.001 0.5 2 5 ylo 0.001 0.5 2 5 zhi EDGE 0.5 2 5 xhi EDGE 0.5 2 5 yhi EDGE 0.5 2 5
#fix_modify wallz energy yes

############running a simulation######################################################
#Put dump command where you wish to view from

dump d1 all xtc 1000 ./test1.xtc

#####equilibration phase of simulation####
#1st we minimised our setup - this gets us towards minimum energy config - stops the simulation exploding from the start from huge forces etc (e.g. if two atoms were very close together the force would be huge between them -> meaning they leave the box between one timestep and the other -> simulation crashes
#syntax: minimiza etol ftol maxiter maxeval - see lammps documentation self-explanatory
minimize 1e-13 1e-15 5000 50000
  update every 1 steps, delay 0 steps, check yes
Step Time TotEng c_mWtemp KinEng PotEng Enthalpy Temp Press Volume Density CPU
0            0   -116.41568            0            0   -116.41568   -4056.2687            0   -1537.3739    175721.39   0.50772015            0
Loop time of 0.235502 on 2 procs for 67 steps with 3375 atoms

Minimization stats:
  Stopping criterion = energy tolerance
  Energy initial, next-to-last, final =
  Force two-norm initial, final = 0.000452967 0.000186917
  Force max component initial, final = 1.42248e-05 2.16255e-05
  Final line search alpha, max atom move = 1 2.16255e-05
  Iterations, force evaluations = 67 86

########set up gaussian velocities at a temp for the mW group##########
#just some initial configuration from which to start
velocity mW create 280 2222 dist gaussian mom yes rot yes

##############equilibration###############
# - important step - once potential energy of system has a small variance then equilibrated system
#fix nvt command: runs nvt simulation (contstant number of particles, volume and controlled temperature)
#syntax: fix fixID groupID style-name keywords..
#keywords here are temp and tchain. temp: 3 arguements - start temp of sim, end temp of sim. temp damping parameter (how rapidly temperature is relaxed). tchain: one arguement - chain length
#This is all to do with the thermostat the simulation uses. Nose-Hoover style. Read info on lammps and elsewhere if want to properly understand. These are set up appropraitely so just use values here. Do at a contant temperature

timestep $(v_Timestep/2) #use half timestep for equilibration
timestep 5
fix f1 mW nvt temp 280 280 $(100*v_Timestep/2) tchain 10
fix f1 mW nvt temp 280 280 500 tchain 10
fix_modify f1 temp mWtemp #makes temp become mWtemp - i.e. thermostat acts on the water
run $(50*1000/v_Timestep*2) #rough rule for how long need to equilibrate for a timestep
run 10000
Step Time TotEng c_mWtemp KinEng PotEng Enthalpy Temp Press Volume Density CPU
67            0   -20571.163          280    1832.8405   -22404.004   -20093.598    182.24066    186.35111    175721.39   0.50772015            0
Averages over the last 6 of 12 rows, steps 6000 to 10067:
TotEng c_mWtemp KinEng PotEng Enthalpy Temp Press Volume Density
-26982.3 282.878 1851.68 -28834 -29153.2 184.114 -670.157 222003 0.401899
Loop time of 42.5699 on 2 procs for 10000 steps with 3375 atoms

####example of npt run - constant pressure instead of volume. System volume will change with time####
##this will likely be necessary for your simulation. If doing bulk liquid (i.e. periodic b.c in xy&z) then need appropraite density - equilibrate with npt then do production run nvt in this case.
#timestep $(v_Timestep/2)
#fix f1 mW npt temp 275 275 $(100*v_Timestep/2) tchain 10 iso 1.0 1.0 $(1000*v_Timestep/2) pchain 10
#fix_modify f1 temp mWtemp
#run $(50*1000/v_Timestep*2)

########production run##########
#after equilibrated - this is the data and trajectory you want as the results
#pass different T0 and T1 to cool as the sim goes -> "cooling ramp" simulation
#Max temperature change rate you should use for mW model is 0.5K/ns - so run simulation for long enough to obey this rule. i.e. 275K to 265K should be a 20ns simulation
unfix f1 #have to unfix the previous fix
fix f2 OH nvt temp 260 260 $(100*v_Timestep) tchain 10
fix f2 OH nvt temp 260 260 1000 tchain 10
#fix_modify f2 temp mWtemp #makes temp become mWtemp -> have to do everytime

reset_timestep 0
run 0
Step Time TotEng c_mWtemp KinEng PotEng Enthalpy Temp Press Volume Density CPU
0        50000   -27070.786    281.80944    1844.6848   -28915.471   -29292.102    183.41835    -681.6866     223434.2   0.39930006            0
Loop time of 3.5e-06 on 2 procs for 0 steps with 3375 atoms

#set simulation to run
timestep 10
run $(v_nsRunTime*1000000/v_Timestep) #nsRuntime -> how long sim will run in nanoseconds
run 1000000
Step Time TotEng c_mWtemp KinEng PotEng Enthalpy Temp Press Volume Density CPU
0        50000   -27070.786    281.80944    1844.6848   -28915.471   -29292.102    183.41835    -681.6866     223434.2   0.39930006            0
Averages over the last 501 of 1001 rows, steps 500000 to 1000000:
TotEng c_mWtemp KinEng PotEng Enthalpy Temp Press Volume Density
-27070.8 281.809 1844.68 -28915.5 -29292.1 183.418 -681.687 223434 0.3993
Loop time of 39041.5 on 2 procs for 1000000 steps with 3375 atoms
