LAMMPS (11 Aug 2017)
units real
dimension 3
newton on
processors * * *
boundary p p p
atom_style atomic
read_data system.data
  orthogonal box = (0 0 0) to (42 42 42)
  reading atoms ...
  2197 atoms

mass 1 18.015
#mass 2 10

group mW type 1
2197 atoms in group mW
#group wall type 2

pair_style sw
pair_coeff * * system.in.sw mW mW

neighbor 2.0 bin

timestep 10
min_style cg
run_style verlet

compute mWtemp mW temp
thermo $(v_psStride*1000/v_Timestep)
thermo 1000
thermo_style custom step time etotal c_mWtemp ke pe enthalpy temp press vol density cpu
thermo_modify flush yes

dump d1 all xtc 1000 ./test1.xtc

minimize 1e-13 1e-15 5000 50000
  update every 1 steps, delay 0 steps, check yes
Step Time TotEng c_mWtemp KinEng PotEng Enthalpy Temp Press Volume Density CPU
0            0   -23373.432            0            0   -23373.432   -25062.794            0   -1563.5034        74088   0.88708556            0
Loop time of 28.783 on 2 procs for 1780 steps with 2197 atoms

Minimization stats:
  Stopping criterion = energy tolerance
  Energy initial, next-to-last, final =
  Force two-norm initial, final = 61.7629 0.00032269
  Force max component initial, final = 2.49729 4.4852e-05
  Final line search alpha, max atom move = 1 4.4852e-05
  Iterations, force evaluations = 1780 3055

velocity mW create 280 16724 dist gaussian mom yes rot yes

timestep $(v_Timestep/2)
timestep 5
fix f1 mW nvt temp 280 280 $(100*v_Timestep/2) tchain 10
fix f1 mW nvt temp 280 280 500 tchain 10
fix_modify f1 temp mWtemp
run $(50*1000/v_Timestep*2)
run 10000
Step Time TotEng c_mWtemp KinEng PotEng Enthalpy Temp Press Volume Density CPU
1780            0   -22384.984          280    1832.8405   -24217.824   -21373.962          280    935.69982        74088   0.88708556            0
Averages over the last 6 of 12 rows, steps 7000 to 11780:
TotEng c_mWtemp KinEng PotEng Enthalpy Temp Press Volume Density
-20234.5 279.64 1830.48 -22064.9 -21172.2 279.64 -867.865 74088 0.887086
Loop time of 77.3913 on 2 procs for 10000 steps with 2197 atoms

unfix f1
fix f2 mW npt temp 280 280 $(100*v_Timestep) tchain 10 iso 1.0 1.0 $(1000*v_Timestep/2) pchain 10
fix f2 mW npt temp 280 280 1000 tchain 10 iso 1.0 1.0 $(1000*v_Timestep/2) pchain 10
fix f2 mW npt temp 280 280 1000 tchain 10 iso 1.0 1.0 5000 pchain 10
fix_modify f2 temp mWtemp

reset_timestep 0
run 0
Step Time TotEng c_mWtemp KinEng PotEng Enthalpy Temp Press Volume Density CPU
0        50000   -20204.493    288.32315    1887.3226   -22091.815    -21443.92    288.32315   -1147.0895        74088   0.88708556            0
Loop time of 4.5e-06 on 2 procs for 0 steps with 2197 atoms

timestep 10
run $(v_nsRunTime*1000000/v_Timestep)
run 100000
Step Time TotEng c_mWtemp KinEng PotEng Enthalpy Temp Press Volume Density CPU
0        50000   -20204.493    288.32315    1887.3226   -22091.815    -21443.92    288.32315   -1147.0895        74088   0.88708556            0
Averages over the last 51 of 101 rows, steps 50000 to 100000:
TotEng c_mWtemp KinEng PotEng Enthalpy Temp Press Volume Density
-20477.1 279.434 1829.14 -22306.3 -20490 279.434 -12.3759 65636.1 1.00133
Loop time of 897.649 on 2 procs for 100000 steps with 2197 atoms
