LAMMPS (11 Aug 2017)
####################################################################################
# External variables that have to be passed on call
# Temperature 	= temperature of the system
# trjFile	= name of the .xtc trajectory file
# dataFile	= name of the .data input for Lammps
# nRand		= random number as seed for the velocity creation
# Timestep	= timestep in fs
# Eps		= LJ epsilon of mW C interaction
# Sigma		= LJ epsilon of mW C interaction
# nTimesteps	= number of timesteps to run
# nStride       = stride of thermo and trajectory output
#####################################################################################

units real
dimension 3
newton on
processors * * *
boundary p p p
atom_style atomic
box tilt large
read_data liq.data
  orthogonal box = (-0.005 0.0045 0.008999) to (45.195 45.2045 45.209)
  reading atoms ...
  3000 atoms

###################### MASS ######################

mass 1 18.015

###################### GROUPS ######################

group mW type 1
3000 atoms in group mW

###################### INTERACTIONS ######################

pair_style sw  # stilinger-weber potl
pair_coeff * * mW-mW.sw mW

###################### INTERACTIONS ######################

neighbor 2.0 bin
timestep 10
min_style cg
run_style verlet

###################### COMPUTES ######################

compute mWtemp mW temp
thermo $(v_psStride*1000/v_Timestep)
thermo 1000
thermo_style custom step time etotal c_mWtemp ke pe enthalpy temp press vol density cpu
thermo_modify flush yes

###################### FIX ######################

#fix wallz mW wall/lj93 zlo 0.001 0.5 2 5
#fix_modify wallz energy yes

###################### RUNNING ######################

dump d1 all xtc 1000 ./watertest2.xtc

###################### MINIMIZATION ######################

minimize 1e-13 1e-15 5000 50000
  update every 1 steps, delay 0 steps, check yes
Step Time TotEng c_mWtemp KinEng PotEng Enthalpy Temp Press Volume Density CPU
0            0    1081442.9            0            0    1081442.9    2680077.2            0    1187019.7    92345.414   0.97182764            0
Loop time of 5.13486 on 2 procs for 593 steps with 3000 atoms

Minimization stats:
  Stopping criterion = linesearch alpha is zero
  Energy initial, next-to-last, final =
  Force two-norm initial, final = 5.79938e+06 0.0752938
  Force max component initial, final = 2.35806e+06 0.0170692
  Final line search alpha, max atom move = 1.90735e-06 3.25569e-08
  Iterations, force evaluations = 593 920

###################### VELOCITIES ######################

velocity mW create 333 22685 dist gaussian mom yes rot yes

###################### EQUILIBRATION ######################

timestep $(v_Timestep/2)
timestep 5
fix f1 mW nvt temp 333 333 $(100*v_Timestep/2) tchain 10
fix f1 mW nvt temp 333 333 500 tchain 10
fix_modify f1 temp mWtemp
run $(500*1000/v_Timestep/2)
run 25000
Step Time TotEng c_mWtemp KinEng PotEng Enthalpy Temp Press Volume Density CPU
593            0   -30674.189          333    2976.8366   -33651.026   -30317.476          333    264.86733    92345.414   0.97182764            0
Averages over the last 14 of 27 rows, steps 13000 to 25593:
TotEng c_mWtemp KinEng PotEng Enthalpy Temp Press Volume Density
-26640.9 335.325 2997.62 -29638.6 -27450.3 335.325 -600.95 92345.4 0.971828
Loop time of 199.148 on 2 procs for 25000 steps with 3000 atoms

###################### RUN ######################

unfix f1
fix f2 mW nvt temp 333 273 $(100*v_Timestep) tchain 10
fix f2 mW nvt temp 333 273 1000 tchain 10
fix_modify f2 temp mWtemp

reset_timestep 0
run 0
Step Time TotEng c_mWtemp KinEng PotEng Enthalpy Temp Press Volume Density CPU
0       125000   -26578.055    343.20941    3068.1032   -29646.158    -27743.94    343.20941   -865.69488    92345.414   0.97182764            0
Loop time of 3e-06 on 2 procs for 0 steps with 3000 atoms

timestep 10
run $(v_nsRunTime*1000000/v_Timestep)
run 100000
Step Time TotEng c_mWtemp KinEng PotEng Enthalpy Temp Press Volume Density CPU
0       125000   -26578.055    343.20941    3068.1032   -29646.158    -27743.94    343.20941   -865.69488    92345.414   0.97182764            0
Averages over the last 51 of 101 rows, steps 50000 to 100000:
TotEng c_mWtemp KinEng PotEng Enthalpy Temp Press Volume Density
-27653.8 287.402 2569.21 -30223 -29294.8 287.402 -1218.54 92345.4 0.971828
Loop time of 833.854 on 2 procs for 100000 steps with 3000 atoms
