LAMMPS (11 Aug 2017)
####################################################################################
# External variables that have to be passed on call
# Temperature 	= temperature of the system
# trjFile	= name of the .xtc trajectory file
# dataFile	= name of the .data input for Lammps
# nRand		= random number as seed for the velocity creation
# Timestep	= timestep in fs
# Eps		= LJ epsilon of mW C interaction
# Sigma		= LJ epsilon of mW C interaction
# nTimesteps	= number of timesteps to run
# nStride       = stride of thermo and trajectory output
#####################################################################################

units real
dimension 3
newton on
processors * * *
boundary p p p
atom_style atomic
box tilt large
read_data liq.data
  orthogonal box = (-0.005 0.0045 0.008999) to (45.195 45.2045 45.209)
  reading atoms ...
  3000 atoms

###################### MASS ######################

mass 1 18.015

###################### GROUPS ######################

group mW type 1
3000 atoms in group mW

###################### INTERACTIONS ######################

pair_style sw  # stilinger-weber potl
pair_coeff * * mW-mW.sw mW

###################### INTERACTIONS ######################

neighbor 2.0 bin
timestep 10
min_style cg
run_style verlet

###################### COMPUTES ######################

compute mWtemp mW temp
thermo $(v_psStride*1000/v_Timestep)
thermo 1000
thermo_style custom step time etotal c_mWtemp ke pe enthalpy temp press vol density cpu
thermo_modify flush yes

###################### FIX ######################

#fix wallz mW wall/lj93 zlo 0.001 0.5 2 5
#fix_modify wallz energy yes

###################### RUNNING ######################

dump d1 all xtc 1000 293-253/trj.xtc

###################### MINIMIZATION ######################

minimize 1e-13 1e-15 5000 50000
  update every 1 steps, delay 0 steps, check yes
Step Time TotEng c_mWtemp KinEng PotEng Enthalpy Temp Press Volume Density CPU
0            0    1081442.9            0            0    1081442.9    2680077.2            0    1187019.7    92345.414   0.97182764            0
Loop time of 4.93932 on 2 procs for 593 steps with 3000 atoms

Minimization stats:
  Stopping criterion = linesearch alpha is zero
  Energy initial, next-to-last, final =
  Force two-norm initial, final = 5.79938e+06 0.0752938
  Force max component initial, final = 2.35806e+06 0.0170692
  Final line search alpha, max atom move = 1.90735e-06 3.25569e-08
  Iterations, force evaluations = 593 920

###################### VELOCITIES ######################

velocity mW create 293 5683 dist gaussian mom yes rot yes

###################### EQUILIBRATION ######################

timestep $(v_Timestep/2)
timestep 5
fix f1 mW nvt temp 293 293 $(100*v_Timestep/2) tchain 10
fix f1 mW nvt temp 293 293 500 tchain 10
fix_modify f1 temp mWtemp
run $(500*1000/v_Timestep/2)
run 25000
Step Time TotEng c_mWtemp KinEng PotEng Enthalpy Temp Press Volume Density CPU
593            0   -31031.767          293    2619.2587   -33651.026   -30913.439          293    87.861216    92345.414   0.97182764            0
Averages over the last 14 of 27 rows, steps 13000 to 25593:
TotEng c_mWtemp KinEng PotEng Enthalpy Temp Press Volume Density
-27573.1 292.86 2618 -30191.2 -29199.7 292.86 -1207.73 92345.4 0.971828
Loop time of 121.333 on 2 procs for 25000 steps with 3000 atoms

###################### RUN ######################

unfix f1
fix f2 mW nvt temp 293 253 $(100*v_Timestep) tchain 10
fix f2 mW nvt temp 293 253 1000 tchain 10
fix_modify f2 temp mWtemp

reset_timestep 0
run 0
Step Time TotEng c_mWtemp KinEng PotEng Enthalpy Temp Press Volume Density CPU
0       125000   -27386.379    307.70043    2750.6724   -30137.052   -29338.585    307.70043   -1449.5541    92345.414   0.97182764            0
Loop time of 2.5e-06 on 2 procs for 0 steps with 3000 atoms

timestep 10
run $(v_nsRunTime*1000000/v_Timestep)
run 2000000
Step Time TotEng c_mWtemp KinEng PotEng Enthalpy Temp Press Volume Density CPU
0       125000   -27386.379    307.70043    2750.6724   -30137.052   -29338.585    307.70043   -1449.5541    92345.414   0.97182764            0
Averages over the last 1001 of 2001 rows, steps 1000000 to 2000000:
TotEng c_mWtemp KinEng PotEng Enthalpy Temp Press Volume Density
-28340.1 262.893 2350.11 -30690.3 -30091 262.893 -1300.05 92345.4 0.971828
Loop time of 10652.6 on 2 procs for 2000000 steps with 3000 atoms
