LAMMPS (11 Aug 2017)
####################################################################################
# External variables that have to be passed on call
# Temperature 	= temperature of the system
# trjFile	= name of the .xtc trajectory file
# dataFile	= name of the .data input for Lammps
# nRand		= random number as seed for the velocity creation
# Timestep	= timestep in fs
# Eps		= LJ epsilon of mW C interaction
# Sigma		= LJ epsilon of mW C interaction
# nTimesteps	= number of timesteps to run
# nStride       = stride of thermo and trajectory output
#####################################################################################

units real
dimension 3
newton on
processors * * *
boundary p p p
atom_style atomic
box tilt large
read_data liq.data
  orthogonal box = (-0.005 0.0045 0.008999) to (45.195 45.2045 45.209)
  reading atoms ...
  3000 atoms

###################### MASS ######################

mass 1 18.015

###################### GROUPS ######################

group mW type 1
3000 atoms in group mW

###################### INTERACTIONS ######################

pair_style sw  # stilinger-weber potl
pair_coeff * * mW-mW.sw mW

###################### INTERACTIONS ######################

neighbor 2.0 bin
timestep 10
min_style cg
run_style verlet

###################### COMPUTES ######################

compute mWtemp mW temp
thermo $(v_psStride*1000/v_Timestep)
thermo 500
thermo_style custom step time etotal c_mWtemp ke pe enthalpy temp press vol density cpu
thermo_modify flush yes

###################### FIX ######################

#fix wallz mW wall/lj93 zlo 0.001 0.5 2 5
#fix_modify wallz energy yes

###################### RUNNING ######################

dump d1 all xtc 500 333-243/trj.xtc

###################### MINIMIZATION ######################

minimize 1e-13 1e-15 5000 50000
  update every 1 steps, delay 0 steps, check yes
Step Time TotEng c_mWtemp KinEng PotEng Enthalpy Temp Press Volume Density CPU
0            0    1081442.9            0            0    1081442.9    2680077.2            0    1187019.7    92345.414   0.97182764            0
Loop time of 5.23131 on 2 procs for 593 steps with 3000 atoms

Minimization stats:
  Stopping criterion = linesearch alpha is zero
  Energy initial, next-to-last, final =
  Force two-norm initial, final = 5.79938e+06 0.0752938
  Force max component initial, final = 2.35806e+06 0.0170692
  Final line search alpha, max atom move = 1.90735e-06 3.25569e-08
  Iterations, force evaluations = 593 920

###################### VELOCITIES ######################

velocity mW create 333 9274 dist gaussian mom yes rot yes

###################### EQUILIBRATION ######################

timestep $(v_Timestep/2)
timestep 5
fix f1 mW nvt temp 333 333 $(100*v_Timestep/2) tchain 10
fix f1 mW nvt temp 333 333 500 tchain 10
fix_modify f1 temp mWtemp
run $(500*1000/v_Timestep/2)
run 25000
Step Time TotEng c_mWtemp KinEng PotEng Enthalpy Temp Press Volume Density CPU
593            0   -30674.189          333    2976.8366   -33651.026   -30317.476          333    264.86733    92345.414   0.97182764            0
Averages over the last 26 of 52 rows, steps 13500 to 25593:
TotEng c_mWtemp KinEng PotEng Enthalpy Temp Press Volume Density
-26640.9 333.218 2978.78 -29619.7 -27700.8 333.218 -787.044 92345.4 0.971828
Loop time of 142.474 on 2 procs for 25000 steps with 3000 atoms

###################### RUN ######################

unfix f1
fix f2 mW nvt temp 333 243 $(100*v_Timestep) tchain 10
fix f2 mW nvt temp 333 243 1000 tchain 10
fix_modify f2 temp mWtemp

reset_timestep 0
run 0
Step Time TotEng c_mWtemp KinEng PotEng Enthalpy Temp Press Volume Density CPU
0       125000   -26634.714    333.24747    2979.0489   -29613.763   -28043.073    333.24747   -1045.7361    92345.414   0.97182764            0
Loop time of 3e-06 on 2 procs for 0 steps with 3000 atoms

timestep 10
run $(v_nsRunTime*1000000/v_Timestep)
run 500000
Step Time TotEng c_mWtemp KinEng PotEng Enthalpy Temp Press Volume Density CPU
0       125000   -26634.714    333.24747    2979.0489   -29613.763   -28043.073    333.24747   -1045.7361    92345.414   0.97182764            0
Averages over the last 501 of 1001 rows, steps 250000 to 500000:
TotEng c_mWtemp KinEng PotEng Enthalpy Temp Press Volume Density
-28279.9 265.412 2372.63 -30652.5 -30023.7 265.412 -1294.82 92345.4 0.971828
Loop time of 2723.49 on 2 procs for 500000 steps with 3000 atoms
