LAMMPS (11 Aug 2017)
# run.in.npt
# This file is a modified version of the "system.in" input script
# created by moltemplate.
#
# --  Usage  --
#
# lmp_mpi -i run.in.npt
# (assuming lmp_mpi is the name of your lammps binary)
#
# --  Prerequisite Input Files:  --
# systen.data, system.in.init, system.in.settings, system.in.sw
#
#     You can generate these files by running moltemplate this way:
# moltemplate.sh -a "@atom:/WatMW/mW 1" system.lt
# ---------------------------------

# -- Init section --

include system.in.init       # <-- contains text written to "In Init"
    # -- Default styles for "WatMW" --
    units           real
    pair_style      sw
    # -- Default styles for "TraPPE" --
    units           real
    atom_style      full
    # (Hybrid force field styles were used for portability.)
    bond_style      hybrid harmonic
    angle_style     hybrid harmonic
    dihedral_style  hybrid opls
    pair_style      hybrid lj/charmm/coul/charmm 9.0 11.0 9.0 11.0
    pair_modify     mix arithmetic
    special_bonds   lj 0.0 0.0 0.0
  # -- Tell LAMMPS we want to use two different pair styles
  # -- (This overrides earlier settings.)
  pair_style   hybrid  sw  lj/charmm/coul/charmm 9.0 11.0 9.0 11.0

# -- Atom Definition Section --

#  Here I just read the raw coordinate data generated by moltemplate.sh.
#  (If I were more careful, I would minimize the system before the run command.)

read_data system.data
  orthogonal box = (0 0 0) to (48 48 48)
  reading atoms ...
  2496 atoms
  scanning bonds ...
  scanning angles ...
  scanning dihedrals ...
  reading bonds ...
  768 bonds
  reading angles ...
  768 angles
  reading dihedrals ...
  768 dihedrals

# -- Settings section --

include system.in.settings   # <-- contains text written to "In Settings"
    group WatMW type 1  #(Atoms of this type belong to the "WatMW" group)
1728 atoms in group WatMW
pair_coeff 2 2 lj/charmm/coul/charmm 0.091411522 3.95
pair_coeff 3 3 lj/charmm/coul/charmm 0.194746286 3.75
pair_coeff 4 4 lj/charmm/coul/charmm 0.294106636 3.73
    bond_coeff     1    harmonic   120.0   1.54
    angle_coeff    1    harmonic   62.0022 114
    dihedral_coeff 1 opls 1.411036 -0.271016 3.145034 0.0
    group TraPPE type 2 3 4
768 atoms in group TraPPE
  # -- Now indicate which atom type(s) are simulated using the "sw" pair style
  # -- In this case only one of the atom types is used (the mW water "atom").

  pair_coeff    * * sw system.in.sw mW NULL NULL NULL

  # -- Unfortunately LAMMPS itself does not understand molemlate syntax, so
  # -- the atoms are identified by order in the list, not by name.  (The "mW"
  # -- refers to to an identifier in the system.in.sw file, not watmw.lt.)
  # -- This command says that the first atom type corresponds to the "mW"
  # -- atom in system.in.sw, and to ignore the remaining three atom types
  # -- (correspond to the CH2, CH3, CH4 atom types defined in trappe1998.lt.
  # --  We don't want to use the "sw" force field for interactions involving
  # --  these atom types, so we put "NULL" there.)
  # -- Note: For this to work, you should probably run moltemplate this way:
  # --     moltemplate.sh -a "@atom:WatMW/mW 1" system.lt
  # -- This assigns the atom type named @atom:WatMW/mW to 1  (the first atom)
pair_coeff 1 2 lj/charmm/coul/charmm 0.11914784667210733 3.558
pair_coeff 1 3 lj/charmm/coul/charmm 0.17390830404497651 3.458
pair_coeff 1 4 lj/charmm/coul/charmm 0.21371654257637612 3.448

# -- Run Section --

timestep        2.0  # <- can be increased to 5.0 or 10.0 if careful
dump            1 all custom 500 traj_npt_cooling.lammpstrj id mol type x y z ix iy iz
fix             fxnpt all npt temp 300.0 253.0 100.0 iso 1.0 1.0 1000.0 drag 1.0

thermo_style    custom step temp pe etotal press vol epair ebond eangle edihed
thermo          500  # time interval for printing out "thermo" data

run             200000
  update every 1 steps, delay 10 steps, check yes
Step Temp PotEng TotEng Press Volume E_pair E_bond E_angle E_dihed
0            0    231480.91    231480.91    534138.23       110592    209154.81    28.327912     18798.71    3499.0618
Averages over the last 201 of 401 rows, steps 100000 to 200000:
Temp PotEng TotEng Press Volume E_pair E_bond E_angle E_dihed
264.215 -16581.7 -14616.7 -1.86691 72695 -18012.8 221.498 235.782 973.792
Loop time of 1455.18 on 2 procs for 200000 steps with 2496 atoms

write_restart   system_after_npt.rst
